Circuit: * D:\Research\LTspice-integration-with-Matlab-and-Python\LTspice_circuits\RC_ckt_transient.asc

.OP point found by inspection.

Date: Fri Oct 25 16:16:05 2024
Total elapsed time: 0.535 seconds.

tnom = 27
temp = 27
method = modified trap
totiter = 100088
traniter = 100088
tranpoints = 50045
accept = 50045
rejected = 0
matrix size = 3
fillins = 0
solver = Normal
Matrix Compiler1: off  [0.0]/0.0/0.0
Matrix Compiler2: 175 bytes object code size  0.0/0.0/[0.0]

